Pcp_File_Version=4
*** BLOCK I: ATMOSPHERIC INFORMATION  **********************************
   MaxAL                    (MaxAL = number of atmospheric data-records)
    365
 DailyVar  SinusVar  lLay  lBCCycles lDummy  lDummy  lDummy  lDummy  lDummy  lDummy
       f       f       f       f       f       f       f       f       f       f
 hCritS                 (max. allowed pressure head at the soil surface)
      0
       tAtm        Prec       rSoil       rRoot      hCritA          rB          hB          ht    RootDepth
          1        0.26   0.0206474    0.259784      100000           0           0           0 
          2        0.01   0.0160389    0.204146      100000           0           0           0 
          3        0.01   0.0167484    0.212154      100000           0           0           0 
          4        0.13   0.0122463     0.15799      100000           0           0           0 
          5           0   0.0305521    0.384719      100000           0           0           0 
          6           0   0.0314714    0.396977      100000           0           0           0 
          7           0   0.0330277    0.414252      100000           0           0           0 
          8           0   0.0350469    0.440089      100000           0           0           0 
          9           0   0.0414461    0.506274      100000           0           0           0 
         10           0   0.0445357    0.543522      100000           0           0           0 
         11           0   0.0505921    0.613651      100000           0           0           0 
         12           0    0.045168    0.554968      100000           0           0           0 
         13           0   0.0368126    0.460206      100000           0           0           0 
         14           0   0.0445123    0.547519      100000           0           0           0 
         15           0   0.0517798    0.630149      100000           0           0           0 
         16           0   0.0454282    0.560456      100000           0           0           0 
         17           0   0.0222391    0.286078      100000           0           0           0 
         18           0   0.0319413    0.402498      100000           0           0           0 
         19           0   0.0371304     0.46113      100000           0           0           0 
         20           0    0.042065    0.515933      100000           0           0           0 
         21           0   0.0456197    0.556238      100000           0           0           0 
         22           0    0.044406    0.543765      100000           0           0           0 
         23           0    0.041529    0.511839      100000           0           0           0 
         24           0   0.0457013    0.559934      100000           0           0           0 
         25           0   0.0401394    0.498197      100000           0           0           0 
         26           0   0.0467158    0.570812      100000           0           0           0 
         27         0.7  0.00769935    0.100635      100000           0           0           0 
         28        0.74   0.0172317     0.22274      100000           0           0           0 
         29        0.01   0.0255389     0.32408      100000           0           0           0 
         30           0   0.0461511    0.566185      100000           0           0           0 
         31        0.01   0.0497173    0.607523      100000           0           0           0 
         32           0   0.0450484    0.553394      100000           0           0           0 
         33           0   0.0431454    0.534043      100000           0           0           0 
         34           0   0.0433368    0.535113      100000           0           0           0 
         35           0   0.0473365    0.580325      100000           0           0           0 
         36           0   0.0549395    0.667602      100000           0           0           0 
         37           0   0.0542651    0.658954      100000           0           0           0 
         38           0   0.0396454    0.493554      100000           0           0           0 
         39           0   0.0294448    0.366295      100000           0           0           0 
         40        0.22   0.0130214    0.167354      100000           0           0           0 
         41           0   0.0353239    0.443903      100000           0           0           0 
         42        1.36   0.0316347    0.392094      100000           0           0           0 
         43        0.01   0.0474375    0.578243      100000           0           0           0 
         44           0   0.0567205    0.690168      100000           0           0           0 
         45           0   0.0471165    0.578348      100000           0           0           0 
         46           0   0.0167077    0.212236      100000           0           0           0 
         47           0   0.0516933    0.628453      100000           0           0           0 
         48           0   0.0468497    0.572669      100000           0           0           0 
         49           0   0.0518839    0.633293      100000           0           0           0 
         50           0   0.0664345    0.801889      100000           0           0           0 
         51           0   0.0299044     0.37616      100000           0           0           0 
         52        0.07   0.0362047    0.450042      100000           0           0           0 
         53        0.01   0.0481342    0.587587      100000           0           0           0 
         54           0    0.046023    0.564944      100000           0           0           0 
         55           0   0.0476174    0.586813      100000           0           0           0 
         56        0.02   0.0176184    0.223822      100000           0           0           0 
         57           0   0.0218211    0.274229      100000           0           0           0 
         58           0   0.0320862     0.40304      100000           0           0           0 
         59           0   0.0386601    0.482669      100000           0           0           0 
         60           0   0.0400468    0.496064      100000           0           0           0 
         61           0   0.0519458     0.62987      100000           0           0           0 
         62           0   0.0562752    0.679129      100000           0           0           0 
         63           0   0.0469919    0.573095      100000           0           0           0 
         64           0   0.0454459     0.55646      100000           0           0           0 
         65           0    0.048804    0.595201      100000           0           0           0 
         66           0   0.0465409    0.570819      100000           0           0           0 
         67           0   0.0442545    0.541741      100000           0           0           0 
         68           0    0.037631    0.467669      100000           0           0           0 
         69           0   0.0436477     0.53866      100000           0           0           0 
         70           0   0.0213493    0.270966      100000           0           0           0 
         71           0   0.0411979     0.50829      100000           0           0           0 
         72           0   0.0410004    0.506918      100000           0           0           0 
         73           0    0.045626     0.56322      100000           0           0           0 
         74        0.15   0.0421149    0.521723      100000           0           0           0 
         75        0.24   0.0442111     0.54202      100000           0           0           0 
         76           0   0.0467402    0.568798      100000           0           0           0 
         77           0   0.0453185    0.554514      100000           0           0           0 
         78           0   0.0524449    0.636345      100000           0           0           0 
         79           0   0.0571304    0.691439      100000           0           0           0 
         80        0.02   0.0488248    0.596905      100000           0           0           0 
         81           0   0.0505619    0.617505      100000           0           0           0 
         82           0   0.0483474    0.589139      100000           0           0           0 
         83           0   0.0500803    0.609483      100000           0           0           0 
         84        0.02   0.0663003    0.796226      100000           0           0           0 
         85           0   0.0602241    0.726364      100000           0           0           0 
         86           0   0.0067007   0.0873199      100000           0           0           0 
         87           0    0.046399    0.568302      100000           0           0           0 
         88           0   0.0522324    0.634311      100000           0           0           0 
         89           0   0.0558453    0.675898      100000           0           0           0 
         90           0   0.0428224    0.527201      100000           0           0           0 
         91           0   0.0429237    0.528236      100000           0           0           0 
         92           0   0.0416343    0.509882      100000           0           0           0 
         93           0   0.0424864    0.520592      100000           0           0           0 
         94        0.03   0.0329283    0.406799      100000           0           0           0 
         95        0.01   0.0410652    0.502186      100000           0           0           0 
         96           0   0.0355074    0.437378      100000           0           0           0 
         97           0   0.0457068    0.556517      100000           0           0           0 
         98           0   0.0480611    0.580302      100000           0           0           0 
         99           0   0.0490699    0.591417      100000           0           0           0 
        100           0   0.0456136    0.550501      100000           0           0           0 
        101           0   0.0396863    0.487368      100000           0           0           0 
        102           0   0.0412156     0.50266      100000           0           0           0 
        103           0   0.0473254    0.574772      100000           0           0           0 
        104           0   0.0427227    0.520633      100000           0           0           0 
        105           0   0.0393081     0.48381      100000           0           0           0 
        106           0   0.0420931    0.511573      100000           0           0           0 
        107           0   0.0411487    0.501122      100000           0           0           0 
        108           0   0.0407032    0.495331      100000           0           0           0 
        109           0   0.0476154    0.577134      100000           0           0           0 
        110        0.02   0.0456471    0.555707      100000           0           0           0 
        111           0   0.0380732    0.465023      100000           0           0           0 
        112           0   0.0451351    0.548613      100000           0           0           0 
        113           0   0.0443073    0.540599      100000           0           0           0 
        114           0   0.0521491    0.626743      100000           0           0           0 
        115           0   0.0417352     0.50805      100000           0           0           0 
        116        0.01  0.00949741    0.123638      100000           0           0           0 
        117        0.12  0.00846577    0.109663      100000           0           0           0 
        118         0.8  0.00982178    0.127174      100000           0           0           0 
        119           0   0.0065175   0.0837559      100000           0           0           0 
        120           0   0.0179599    0.228878      100000           0           0           0 
        121        0.05  0.00818833    0.104659      100000           0           0           0 
        122        0.49  0.00611651   0.0813346      100000           0           0           0 
        123           0   0.0296038    0.364534      100000           0           0           0 
        124           0   0.0255382    0.316554      100000           0           0           0 
        125           0   0.0193894    0.240881      100000           0           0           0 
        126        0.11   0.0070219   0.0918454      100000           0           0           0 
        127           0   0.0163579    0.206914      100000           0           0           0 
        128        0.01   0.0235024    0.293598      100000           0           0           0 
        129           0   0.0300035    0.369306      100000           0           0           0 
        130           0   0.0278535    0.342006      100000           0           0           0 
        131           0   0.0255721    0.315629      100000           0           0           0 
        132           0   0.0267921    0.330946      100000           0           0           0 
        133           0   0.0278342    0.342105      100000           0           0           0 
        134           0   0.0349619    0.425141      100000           0           0           0 
        135           0   0.0337809    0.412067      100000           0           0           0 
        136           0   0.0274135    0.336349      100000           0           0           0 
        137           0   0.0194813    0.242834      100000           0           0           0 
        138        0.43   0.0177873    0.220743      100000           0           0           0 
        139           0   0.0220515    0.271345      100000           0           0           0 
        140           0   0.0227079    0.279218      100000           0           0           0 
        141           0   0.0250799    0.304436      100000           0           0           0 
        142           0   0.0248788    0.305291      100000           0           0           0 
        143           0   0.0182212    0.226937      100000           0           0           0 
        144           0   0.0249306    0.305494      100000           0           0           0 
        145           0   0.0265166    0.321922      100000           0           0           0 
        146        0.27  0.00819569     0.10556      100000           0           0           0 
        147         0.1   0.0198723    0.246675      100000           0           0           0 
        148           0   0.0206592    0.254279      100000           0           0           0 
        149           0   0.0196155    0.240547      100000           0           0           0 
        150           0   0.0183454     0.22563      100000           0           0           0 
        151        0.23   0.0105412    0.134349      100000           0           0           0 
        152        0.05   0.0102754    0.130164      100000           0           0           0 
        153           0   0.0145011    0.182505      100000           0           0           0 
        154        0.03   0.0031556   0.0411034      100000           0           0           0 
        155        0.01   0.0118935    0.149205      100000           0           0           0 
        156           0   0.0176801    0.218366      100000           0           0           0 
        157        0.01   0.0172814    0.213483      100000           0           0           0 
        158           0   0.0158535    0.195737      100000           0           0           0 
        159           0  0.00815433     0.10302      100000           0           0           0 
        160           0    0.015124    0.189406      100000           0           0           0 
        161        0.04  0.00839301    0.106863      100000           0           0           0 
        162         0.8   0.0042022   0.0554345      100000           0           0           0 
        163        0.01   0.0136311    0.170889      100000           0           0           0 
        164           0   0.0134444    0.168814      100000           0           0           0 
        165           0  0.00499532   0.0643396      100000           0           0           0 
        166           0  0.00744517   0.0951438      100000           0           0           0 
        167           0   0.0119515    0.150286      100000           0           0           0 
        168        0.78  0.00293641   0.0393148      100000           0           0           0 
        169        7.69  0.00279438   0.0353685      100000           0           0           0 
        170        2.06  0.00607499    0.077889      100000           0           0           0 
        171        0.07  0.00863407    0.108928      100000           0           0           0 
        172        0.01   0.0106347    0.132334      100000           0           0           0 
        173           0   0.0135248    0.167438      100000           0           0           0 
        174           0    0.013582     0.16874      100000           0           0           0 
        175           0   0.0119411     0.14921      100000           0           0           0 
        176           0   0.0131482    0.163822      100000           0           0           0 
        177           0  0.00871751    0.110247      100000           0           0           0 
        178           0   0.0104796    0.131625      100000           0           0           0 
        179        0.01  0.00867809    0.109048      100000           0           0           0 
        180           0   0.0136226    0.168163      100000           0           0           0 
        181           0  0.00761821   0.0961904      100000           0           0           0 
        182           0   0.0087511    0.110941      100000           0           0           0 
        183           0   0.0085807      0.1087      100000           0           0           0 
        184        0.02  0.00906296    0.114087      100000           0           0           0 
        185        0.01  0.00994956    0.124525      100000           0           0           0 
        186        0.03  0.00490393   0.0635029      100000           0           0           0 
        187        0.32  0.00233301   0.0311407      100000           0           0           0 
        188        0.01  0.00536762   0.0676284      100000           0           0           0 
        189        0.09  0.00443436   0.0569194      100000           0           0           0 
        190        0.03  0.00660877   0.0824672      100000           0           0           0 
        191         0.5  0.00666971   0.0841495      100000           0           0           0 
        192       10.48  0.00166829   0.0218365      100000           0           0           0 
        193        0.54  0.00296326   0.0395177      100000           0           0           0 
        194        1.08   0.0069963   0.0872828      100000           0           0           0 
        195        2.36  0.00477169   0.0615425      100000           0           0           0 
        196        1.64  0.00385983   0.0506624      100000           0           0           0 
        197        0.17  0.00381732   0.0489713      100000           0           0           0 
        198        0.01  0.00392315   0.0494795      100000           0           0           0 
        199        0.01  0.00301678     0.03906      100000           0           0           0 
        200        0.01  0.00360328   0.0458028      100000           0           0           0 
        201        1.36  0.00314467   0.0411904      100000           0           0           0 
        202        0.36   0.0035426   0.0464311      100000           0           0           0 
        203        3.48  0.00320487   0.0421876      100000           0           0           0 
        204        0.14  0.00507844   0.0653264      100000           0           0           0 
        205        1.39  0.00760683   0.0955748      100000           0           0           0 
        206        0.01  0.00395344   0.0497812      100000           0           0           0 
        207        0.24  0.00320666   0.0415316      100000           0           0           0 
        208        0.67  0.00391909   0.0497279      100000           0           0           0 
        209        0.18  0.00426004   0.0543805      100000           0           0           0 
        210        6.98  0.00353838   0.0452171      100000           0           0           0 
        211        0.32  0.00301128   0.0386699      100000           0           0           0 
        212        0.08  0.00346924   0.0438078      100000           0           0           0 
        213           0   0.0068362    0.085115      100000           0           0           0 
        214           0  0.00813205    0.100618      100000           0           0           0 
        215           0  0.00505849   0.0622815      100000           0           0           0 
        216           0  0.00589833   0.0734844      100000           0           0           0 
        217           0  0.00458917   0.0589921      100000           0           0           0 
        218           0  0.00430264   0.0545784      100000           0           0           0 
        219        0.01  0.00323601   0.0406007      100000           0           0           0 
        220        0.01  0.00265598   0.0345223      100000           0           0           0 
        221        0.14  0.00243183   0.0320935      100000           0           0           0 
        222        1.51  0.00106164   0.0140406      100000           0           0           0 
        223        4.76  0.00250427   0.0325854      100000           0           0           0 
        224        3.57  0.00183206   0.0244048      100000           0           0           0 
        225        4.28  0.00111177   0.0146366      100000           0           0           0 
        226        1.11  0.00129301   0.0174531      100000           0           0           0 
        227        2.51  0.00636713   0.0807978      100000           0           0           0 
        228        0.69  0.00363244   0.0471772      100000           0           0           0 
        229        0.07  0.00389192   0.0493538      100000           0           0           0 
        230        0.01  0.00307025   0.0397201      100000           0           0           0 
        231        0.01  0.00303806   0.0394262      100000           0           0           0 
        232        0.01  0.00294406   0.0389213      100000           0           0           0 
        233        0.85  0.00196442   0.0263137      100000           0           0           0 
        234         1.4   0.0033472   0.0439955      100000           0           0           0 
        235        0.09  0.00563492   0.0719529      100000           0           0           0 
        236        2.11  0.00700061   0.0878954      100000           0           0           0 
        237        0.32  0.00171139   0.0230932      100000           0           0           0 
        238        0.02   0.0029452   0.0381653      100000           0           0           0 
        239        2.62  0.00202828   0.0266146      100000           0           0           0 
        240        1.08  0.00677519   0.0847112      100000           0           0           0 
        241        0.05  0.00354374   0.0447314      100000           0           0           0 
        242        0.01  0.00358008   0.0444978      100000           0           0           0 
        243        0.07  0.00198581   0.0264429      100000           0           0           0 
        244           0   0.0035468   0.0448715      100000           0           0           0 
        245        0.01  0.00349647   0.0438946      100000           0           0           0 
        246        0.03  0.00436295   0.0554308      100000           0           0           0 
        247        0.01  0.00507867   0.0639261      100000           0           0           0 
        248           0  0.00515803   0.0646311      100000           0           0           0 
        249        0.01  0.00425295   0.0532578      100000           0           0           0 
        250        0.05  0.00226739   0.0290377      100000           0           0           0 
        251        2.84  0.00223731   0.0287473      100000           0           0           0 
        252        4.26  0.00148656   0.0194282      100000           0           0           0 
        253        1.77  0.00419948   0.0546534      100000           0           0           0 
        254        0.42  0.00458511   0.0589579      100000           0           0           0 
        255        0.02  0.00320335   0.0414524      100000           0           0           0 
        256        2.71   0.0035714   0.0467973      100000           0           0           0 
        257        0.57  0.00454502    0.059107      100000           0           0           0 
        258        0.02  0.00411943   0.0532251      100000           0           0           0 
        259           0   0.0035058    0.046352      100000           0           0           0 
        260           0   0.0050501   0.0649938      100000           0           0           0 
        261        0.02  0.00237154   0.0320257      100000           0           0           0 
        262           0  0.00495915    0.064098      100000           0           0           0 
        263        1.67   0.0024565   0.0328772      100000           0           0           0 
        264        0.03  0.00502377   0.0647562      100000           0           0           0 
        265        0.01   0.0106191    0.131657      100000           0           0           0 
        266           0   0.0116096    0.142201      100000           0           0           0 
        267           0   0.0091309    0.113024      100000           0           0           0 
        268           0  0.00541595   0.0693353      100000           0           0           0 
        269           0   0.0065787   0.0831997      100000           0           0           0 
        270        0.01  0.00783795   0.0982297      100000           0           0           0 
        271           0  0.00589374   0.0749804      100000           0           0           0 
        272        2.89  0.00192667   0.0250027      100000           0           0           0 
        273        1.79  0.00656606   0.0839939      100000           0           0           0 
        274        0.06  0.00702613   0.0890367      100000           0           0           0 
        275           0  0.00983612    0.121705      100000           0           0           0 
        276           0  0.00778652   0.0992188      100000           0           0           0 
        277           0  0.00503299   0.0655804      100000           0           0           0 
        278        6.51  0.00171534   0.0228483      100000           0           0           0 
        279        2.91  0.00622467   0.0807193      100000           0           0           0 
        280        0.18   0.0105953     0.13203      100000           0           0           0 
        281        1.15  0.00851438    0.107191      100000           0           0           0 
        282        4.06  0.00735955   0.0934164      100000           0           0           0 
        283        3.65  0.00338613   0.0445093      100000           0           0           0 
        284        0.49   0.0089846    0.113344      100000           0           0           0 
        285        1.13  0.00792029    0.101277      100000           0           0           0 
        286        0.13  0.00728883   0.0930204      100000           0           0           0 
        287        0.49  0.00810436    0.103119      100000           0           0           0 
        288        0.02  0.00958722    0.119514      100000           0           0           0 
        289           0   0.0116766    0.144376      100000           0           0           0 
        290        0.22   0.0119344    0.146973      100000           0           0           0 
        291        2.48  0.00879233    0.111488      100000           0           0           0 
        292        1.36  0.00909423    0.114226      100000           0           0           0 
        293        0.35   0.0121282    0.152023      100000           0           0           0 
        294        0.04  0.00383978   0.0494717      100000           0           0           0 
        295        0.45   0.0065999   0.0842015      100000           0           0           0 
        296           0  0.00534501   0.0692592      100000           0           0           0 
        297           0   0.0157524    0.194106      100000           0           0           0 
        298        0.01  0.00942201    0.117151      100000           0           0           0 
        299        7.88  0.00230235   0.0299107      100000           0           0           0 
        300        0.19   0.0111334    0.140078      100000           0           0           0 